* File: RAN.pex.netlist.pex
* Created: Sat Dec  9 17:16:22 2023
* Program "Calibre xRC"
* Version "v2023.3_29.15"
* Nominal Temperature: 25C
* Circuit Temperature: 25C
* 
.subckt PM_RAN_Xtest_full_adder_nand_1.XNand_gate_2_inputs_10.N1 1 2
r7 1 2 0.3
.ends

.subckt PM_RAN_Xtest_full_adder_nand_1.XNand_gate_2_inputs_1.N1 1 2
r6 1 2 0.3
.ends

.subckt PM_RAN_Xtest_full_adder_nand_1.XNand_gate_2_inputs_3.N1 1 2
r6 1 2 0.3
.ends

.subckt PM_RAN_Xtest_full_adder_nand_1.XNand_gate_2_inputs_2.N1 1 2
r6 1 2 0.3
.ends

.subckt PM_RAN_Xtest_full_adder_nand_1.XNand_gate_2_inputs_4.N1 1 2
r6 1 2 0.3
.ends

.subckt PM_RAN_Xtest_full_adder_nand_1.XNand_gate_2_inputs_9.N1 1 2
r6 1 2 0.3
.ends

.subckt PM_RAN_Xtest_full_adder_nand_1.XNand_gate_2_inputs_5.N1 1 2
r6 1 2 0.3
.ends

.subckt PM_RAN_Xtest_full_adder_nand_1.XNand_gate_2_inputs_6.N1 1 2
r6 1 2 0.3
.ends

.subckt PM_RAN_Xtest_full_adder_nand_1.XNand_gate_2_inputs_7.N1 1 2
r6 1 2 0.3
.ends

.subckt PM_RAN_Xtest_full_adder_nand_1.XNand_gate_2_inputs_8.N1 1 2
r7 1 2 0.3
.ends

.subckt PM_RAN_Xtest_full_adder_nand_1.XNand_gate_2_inputs_11.N1 1 2
r7 1 2 0.3
.ends

.subckt PM_RAN_Xtest_full_adder_nand_2.XNand_gate_2_inputs_10.N1 1 2
r7 1 2 0.3
.ends

.subckt PM_RAN_Xtest_full_adder_nand_2.XNand_gate_2_inputs_1.N1 1 2
r6 1 2 0.3
.ends

.subckt PM_RAN_Xtest_full_adder_nand_2.XNand_gate_2_inputs_3.N1 1 2
r6 1 2 0.3
.ends

.subckt PM_RAN_Xtest_full_adder_nand_2.XNand_gate_2_inputs_2.N1 1 2
r6 1 2 0.3
.ends

.subckt PM_RAN_Xtest_full_adder_nand_2.XNand_gate_2_inputs_4.N1 1 2
r6 1 2 0.3
.ends

.subckt PM_RAN_Xtest_full_adder_nand_2.XNand_gate_2_inputs_9.N1 1 2
r6 1 2 0.3
.ends

.subckt PM_RAN_Xtest_full_adder_nand_2.XNand_gate_2_inputs_5.N1 1 2
r6 1 2 0.3
.ends

.subckt PM_RAN_Xtest_full_adder_nand_2.XNand_gate_2_inputs_6.N1 1 2
r6 1 2 0.3
.ends

.subckt PM_RAN_Xtest_full_adder_nand_2.XNand_gate_2_inputs_7.N1 1 2
r6 1 2 0.3
.ends

.subckt PM_RAN_Xtest_full_adder_nand_2.XNand_gate_2_inputs_8.N1 1 2
r7 1 2 0.3
.ends

.subckt PM_RAN_Xtest_full_adder_nand_2.XNand_gate_2_inputs_11.N1 1 2
r7 1 2 0.3
.ends

.subckt PM_RAN_Xtest_full_adder_nand_3.XNand_gate_2_inputs_10.N1 1 2
r7 1 2 0.3
.ends

.subckt PM_RAN_Xtest_full_adder_nand_3.XNand_gate_2_inputs_1.N1 1 2
r6 1 2 0.3
.ends

.subckt PM_RAN_Xtest_full_adder_nand_3.XNand_gate_2_inputs_3.N1 1 2
r6 1 2 0.3
.ends

.subckt PM_RAN_Xtest_full_adder_nand_3.XNand_gate_2_inputs_2.N1 1 2
r6 1 2 0.3
.ends

.subckt PM_RAN_Xtest_full_adder_nand_3.XNand_gate_2_inputs_4.N1 1 2
r6 1 2 0.3
.ends

.subckt PM_RAN_Xtest_full_adder_nand_3.XNand_gate_2_inputs_9.N1 1 2
r6 1 2 0.3
.ends

.subckt PM_RAN_Xtest_full_adder_nand_3.XNand_gate_2_inputs_5.N1 1 2
r6 1 2 0.3
.ends

.subckt PM_RAN_Xtest_full_adder_nand_3.XNand_gate_2_inputs_6.N1 1 2
r6 1 2 0.3
.ends

.subckt PM_RAN_Xtest_full_adder_nand_3.XNand_gate_2_inputs_7.N1 1 2
r6 1 2 0.3
.ends

.subckt PM_RAN_Xtest_full_adder_nand_3.XNand_gate_2_inputs_8.N1 1 2
r7 1 2 0.3
.ends

.subckt PM_RAN_Xtest_full_adder_nand_3.XNand_gate_2_inputs_11.N1 1 2
r6 1 2 0.3
.ends

.subckt PM_RAN_Xtest_full_adder_nand_4.XNand_gate_2_inputs_10.N1 1 2
r7 1 2 0.3
.ends

.subckt PM_RAN_Xtest_full_adder_nand_4.XNand_gate_2_inputs_1.N1 1 2
r6 1 2 0.3
.ends

.subckt PM_RAN_Xtest_full_adder_nand_4.XNand_gate_2_inputs_3.N1 1 2
r6 1 2 0.3
.ends

.subckt PM_RAN_Xtest_full_adder_nand_4.XNand_gate_2_inputs_2.N1 1 2
r6 1 2 0.3
.ends

.subckt PM_RAN_Xtest_full_adder_nand_4.XNand_gate_2_inputs_4.N1 1 2
r6 1 2 0.3
.ends

.subckt PM_RAN_Xtest_full_adder_nand_4.XNand_gate_2_inputs_9.N1 1 2
r6 1 2 0.3
.ends

.subckt PM_RAN_Xtest_full_adder_nand_4.XNand_gate_2_inputs_5.N1 1 2
r6 1 2 0.3
.ends

.subckt PM_RAN_Xtest_full_adder_nand_4.XNand_gate_2_inputs_6.N1 1 2
r6 1 2 0.3
.ends

.subckt PM_RAN_Xtest_full_adder_nand_4.XNand_gate_2_inputs_7.N1 1 2
r6 1 2 0.3
.ends

.subckt PM_RAN_Xtest_full_adder_nand_4.XNand_gate_2_inputs_8.N1 1 2
r7 1 2 0.3
.ends

.subckt PM_RAN_Xtest_full_adder_nand_4.XNand_gate_2_inputs_11.N1 1 2
r7 1 2 0.3
.ends

.subckt PM_RAN_Xtest_full_adder_nand_1.N_1 1 3 6 7 14 16 17 18 19 28 29 30 40 48
+ 50 55 62 65 66 67 68 69 70 72 73 77 78
c178 72 0 1.35269e-19
c179 70 0 1.81663e-19
c180 68 0 1.20633e-19
c181 67 0 8.53251e-21
c182 66 0 6.53963e-20
c183 55 0 1.65124e-19
c184 16 0 6.59317e-20
c185 14 0 1.18422e-20
r186 75 77 0.175743
r187 72 82 0.132709
r188 72 73 0.566038
r189 71 78 0.124678
r190 70 73 0.18725
r191 70 71 4.78395
r192 69 78 0.0129293
r193 68 80 0.139603
r194 68 69 0.59596
r195 66 78 0.124678
r196 66 67 3.53395
r197 65 67 0.164561
r198 64 65 1.39175
r199 62 64 0.144078
r200 62 77 2.97183
r201 61 75 2
r202 55 82 2
r203 50 80 2
r204 41 55 0.00292308
r205 37 40 0.192274
r206 34 40 0.192274
r207 32 41 1.1
r208 30 40 0.0260897
r209 30 32 0.193182
r210 29 37 2.875
r211 28 34 1.075
r212 27 50 0.00876923
r213 26 27 1.1
r214 22 26 0.200688
r215 19 26 0.386101
r216 18 19 2.423
r217 17 22 1.105
r218 16 61 0.00837675
r219 14 48 0.20978
r220 12 16 0.776809
r221 10 48 4.15286
r222 10 12 0.212317
r223 9 14 1
r224 7 9 0.075
r225 6 9 0.075
r226 3 16 1
r227 1 3 0.125
.ends

.subckt PM_RAN_Xtest_full_adder_nand_1.N_3 1 3 6 7 14 16 17 18 19 29 30 36 47 48
+ 52 53 56 57
c121 30 0 9.78281e-20
c122 16 0 6.59326e-20
c123 14 0 1.18422e-20
r124 56 57 0.132257
r125 52 53 0.16174
r126 49 57 1.70872
r127 47 49 0.143344
r128 47 48 10.811
r129 45 48 0.13971
r130 45 53 1.4875
r131 44 52 2
r132 38 56 2
r133 30 38 0.00584615
r134 26 29 0.192274
r135 23 29 0.192274
r136 21 30 1.1
r137 19 29 0.0260897
r138 19 21 0.193182
r139 18 26 2.875
r140 17 23 1.075
r141 16 44 0.0121844
r142 14 36 0.20978
r143 12 16 0.776809
r144 10 36 4.15286
r145 10 12 0.212317
r146 9 14 1
r147 7 9 0.075
r148 6 9 0.075
r149 3 16 1
r150 1 3 0.125
.ends

.subckt PM_RAN_Xtest_full_adder_nand_1.N_2 1 3 6 7 14 16 17 18 19 27 33 41 44 45
+ 46 47 48 52
c116 33 0 1.16056e-19
c117 16 0 6.59301e-20
c118 14 0 1.18422e-20
r119 50 52 0.17229
r120 47 54 0.1238
r121 47 48 0.436
r122 45 48 0.14598
r123 45 46 2.08721
r124 44 46 0.143273
r125 43 44 1.14693
r126 41 43 0.148597
r127 41 52 3.44863
r128 40 50 2
r129 27 54 2
r130 26 27 1.1
r131 22 26 0.200688
r132 19 26 0.386101
r133 18 19 2.423
r134 17 22 1.105
r135 16 40 0.00076
r136 14 33 0.20978
r137 12 16 0.77563
r138 10 33 4.15286
r139 10 12 0.212317
r140 9 14 1
r141 7 9 0.075
r142 6 9 0.075
r143 3 16 1
r144 1 3 0.125
.ends

.subckt PM_RAN_Xtest_full_adder_nand_1.N_4 1 3 6 7 14 16 17 18 19 29 31 32 33 43
+ 45 46 47 57 66 68 75 80 87 88 91 95 100 101 104 105 107 109 110 112 114 115
c251 109 0 1.66914e-19
c252 105 0 1.27302e-19
c253 91 0 1.40707e-19
c254 87 0 2.17611e-20
c255 75 0 1.60854e-20
c256 68 0 1.38515e-19
c257 16 0 6.59309e-20
c258 14 0 1.18422e-20
r259 114 115 0.172675
r260 109 110 0.172675
r261 104 105 0.172675
r262 100 101 0.176128
r263 97 115 2.46918
r264 96 112 0.0950116
r265 95 97 0.14043
r266 95 96 4.21687
r267 93 112 0.0370632
r268 93 110 2.4726
r269 92 107 0.0950116
r270 91 112 0.0950116
r271 91 92 3.9488
r272 89 107 0.0370632
r273 89 105 2.4726
r274 87 107 0.0950116
r275 87 88 3.46386
r276 85 88 0.140788
r277 85 101 1.60211
r278 84 100 2
r279 80 114 2
r280 75 109 2
r281 68 104 2
r282 58 80 0.0292308
r283 54 57 0.192274
r284 51 57 0.192274
r285 49 58 1.1
r286 47 57 0.0260897
r287 47 49 0.193182
r288 46 54 2.875
r289 45 51 1.075
r290 44 75 0.0263077
r291 40 43 0.192274
r292 37 43 0.192274
r293 35 44 1.1
r294 33 43 0.0260897
r295 33 35 0.193182
r296 32 40 2.875
r297 31 37 1.075
r298 30 68 0.00876923
r299 26 29 0.192274
r300 23 29 0.192274
r301 21 30 1.1
r302 19 29 0.0260897
r303 19 21 0.193182
r304 18 26 2.875
r305 17 23 1.075
r306 16 84 0.0038
r307 14 66 0.20978
r308 12 16 0.77563
r309 10 66 4.15286
r310 10 12 0.212317
r311 9 14 1
r312 7 9 0.075
r313 6 9 0.075
r314 3 16 1
r315 1 3 0.125
.ends

.subckt PM_RAN_Xtest_full_adder_nand_1.N_8 1 3 6 7 14 16 17 18 19 35 36 38 39 42
+ 44 46 56 60 61 64
c142 56 0 2.13416e-19
c143 38 0 1.49332e-19
c144 36 0 1.40707e-19
c145 16 0 6.59309e-20
c146 14 0 1.18422e-20
c147 3 0 6.42504e-26
r148 64 66 0.171005
r149 61 66 3.20946
r150 60 61 0.171005
r151 56 58 0.0019084
r152 52 56 2
r153 46 60 2
r154 42 64 2
r155 38 58 2
r156 38 39 0.171005
r157 35 42 0.156235
r158 35 36 23.4048
r159 33 36 0.123912
r160 33 39 2.35473
r161 27 46 0.00584615
r162 26 27 1.1
r163 22 26 0.200688
r164 19 26 0.386101
r165 18 19 2.423
r166 17 22 1.105
r167 16 52 0.0038
r168 14 44 0.20978
r169 12 16 0.77563
r170 10 44 4.15286
r171 10 12 0.212317
r172 9 14 1
r173 7 9 0.075
r174 6 9 0.075
r175 3 16 1
r176 1 3 0.125
.ends

.subckt PM_RAN_Xtest_full_adder_nand_1.N_5 1 3 6 7 14 16 17 18 19 28 29 30 40 48
+ 52 57 61 64 65 66 68 69 72 76 78 81 83
c186 83 0 1.63582e-19
c187 78 0 1.85859e-19
c188 57 0 1.5715e-20
c189 16 0 6.59301e-20
c190 14 0 1.18422e-20
r191 83 85 0.166216
r192 78 80 0.166216
r193 74 76 0.151227
r194 72 85 0.548701
r195 70 81 0.114515
r196 69 72 0.140095
r197 69 70 3.94643
r198 68 81 0.0205267
r199 68 80 0.532468
r200 65 81 0.114515
r201 65 66 2.74286
r202 64 66 0.140214
r203 63 64 1.4359
r204 61 63 0.124431
r205 61 76 1.43182
r206 57 83 2
r207 52 78 2
r208 41 57 0.0263077
r209 37 40 0.192274
r210 34 40 0.192274
r211 32 41 1.1
r212 30 40 0.0260897
r213 30 32 0.193182
r214 29 37 2.875
r215 28 34 1.075
r216 27 52 0.0116923
r217 26 27 1.1
r218 22 26 0.200688
r219 19 26 0.386101
r220 18 19 2.423
r221 17 22 1.105
r222 16 74 2
r223 14 48 0.20978
r224 12 16 0.77563
r225 10 48 4.15286
r226 10 12 0.212317
r227 9 14 1
r228 7 9 0.075
r229 6 9 0.075
r230 3 16 1
r231 1 3 0.125
.ends

.subckt PM_RAN_Xtest_full_adder_nand_1.N_6 1 3 6 7 14 16 17 18 19 29 30 36 46 47
+ 49 51 53 54 57 58
c133 51 0 4.07927e-20
c134 30 0 1.64361e-19
c135 16 0 6.59326e-20
c136 14 0 1.18422e-20
r137 57 58 0.152434
r138 53 54 0.172675
r139 51 58 0.497126
r140 49 51 0.140105
r141 48 49 2.33544
r142 46 48 0.13484
r143 46 47 7.66265
r144 44 47 0.14043
r145 44 54 1.55822
r146 43 53 2
r147 30 57 2
r148 26 29 0.192274
r149 23 29 0.192274
r150 21 30 1.1
r151 19 29 0.0260897
r152 19 21 0.193182
r153 18 26 2.875
r154 17 23 1.075
r155 16 43 0.0114228
r156 14 36 0.20978
r157 12 16 0.776809
r158 10 36 4.15286
r159 10 12 0.212317
r160 9 14 1
r161 7 9 0.075
r162 6 9 0.075
r163 3 16 1
r164 1 3 0.125
.ends

.subckt PM_RAN_Xtest_full_adder_nand_1.N_7 1 3 6 7 14 16 17 18 19 27 33 41 42 44
+ 45 46 48 52
c121 48 0 1.06594e-20
c122 16 0 6.59301e-20
c123 14 0 1.18422e-20
r124 52 54 0.13164
r125 48 54 0.331818
r126 45 48 0.140026
r127 45 46 2.55625
r128 44 46 0.144026
r129 43 44 1.1733
r130 42 50 0.127823
r131 41 43 0.142123
r132 41 42 0.666667
r133 37 52 2
r134 27 37 0.00584615
r135 26 27 1.1
r136 22 26 0.200688
r137 19 26 0.386101
r138 18 19 2.423
r139 17 22 1.105
r140 16 50 2
r141 14 33 0.20978
r142 12 16 0.77563
r143 10 33 4.15286
r144 10 12 0.212317
r145 9 14 1
r146 7 9 0.075
r147 6 9 0.075
r148 3 16 1
r149 1 3 0.125
.ends

.subckt PM_RAN_Xtest_full_adder_nand_1.N_9 1 3 6 7 12 14 16 17 18 19 29 30 37 39
+ 40 41 42 43 50 52 55 56 58 59
c152 59 0 1.06594e-20
c153 56 0 4.80717e-20
c154 52 0 1.07827e-19
c155 30 0 2.2692e-19
c156 16 0 5.47716e-20
c157 14 0 1.18422e-20
c158 12 0 6.59126e-20
r159 59 63 0.0383333
r160 58 61 0.065
r161 58 59 2.03833
r162 55 61 2
r163 55 56 0.24368
r164 48 63 2
r165 43 50 0.198995
r166 42 50 0.198995
r167 40 50 0.0129942
r168 40 41 3.61626
r169 39 56 88.5165
r170 37 41 0.217263
r171 36 39 0.22244
r172 36 37 4.55681
r173 30 48 0.00876923
r174 26 29 0.192274
r175 23 29 0.192274
r176 21 30 1.1
r177 19 29 0.0260897
r178 19 21 0.193182
r179 18 26 2.875
r180 17 23 1.075
r181 16 52 0.20978
r182 12 52 0.814286
r183 11 43 1.25726
r184 11 14 0.20978
r185 10 42 2.4016
r186 10 12 0.212317
r187 9 14 1
r188 7 9 0.075
r189 6 9 0.075
r190 3 16 1
r191 1 3 0.125
.ends

.subckt PM_RAN_Xtest_full_adder_nand_2.N_1 1 3 6 7 14 16 17 18 19 28 29 30 40 48
+ 50 55 62 65 66 67 68 69 70 72 73 77 78
c178 72 0 1.35269e-19
c179 70 0 1.81663e-19
c180 68 0 1.20633e-19
c181 67 0 8.53251e-21
c182 66 0 6.53963e-20
c183 55 0 1.65124e-19
c184 16 0 6.59317e-20
c185 14 0 1.18422e-20
r186 75 77 0.175743
r187 72 82 0.132709
r188 72 73 0.566038
r189 71 78 0.124678
r190 70 73 0.18725
r191 70 71 4.78395
r192 69 78 0.0129293
r193 68 80 0.139603
r194 68 69 0.59596
r195 66 78 0.124678
r196 66 67 3.53395
r197 65 67 0.164561
r198 64 65 1.39175
r199 62 64 0.144078
r200 62 77 2.97183
r201 61 75 2
r202 55 82 2
r203 50 80 2
r204 41 55 0.00292308
r205 37 40 0.192274
r206 34 40 0.192274
r207 32 41 1.1
r208 30 40 0.0260897
r209 30 32 0.193182
r210 29 37 2.875
r211 28 34 1.075
r212 27 50 0.00876923
r213 26 27 1.1
r214 22 26 0.200688
r215 19 26 0.386101
r216 18 19 2.423
r217 17 22 1.105
r218 16 61 0.00837675
r219 14 48 0.20978
r220 12 16 0.776809
r221 10 48 4.15286
r222 10 12 0.212317
r223 9 14 1
r224 7 9 0.075
r225 6 9 0.075
r226 3 16 1
r227 1 3 0.125
.ends

.subckt PM_RAN_Xtest_full_adder_nand_2.N_3 1 3 6 7 14 16 17 18 19 29 30 36 47 48
+ 52 53 56 57
c121 30 0 9.78281e-20
c122 16 0 6.59326e-20
c123 14 0 1.18422e-20
r124 56 57 0.132257
r125 52 53 0.16174
r126 49 57 1.70872
r127 47 49 0.143344
r128 47 48 10.811
r129 45 48 0.13971
r130 45 53 1.4875
r131 44 52 2
r132 38 56 2
r133 30 38 0.00584615
r134 26 29 0.192274
r135 23 29 0.192274
r136 21 30 1.1
r137 19 29 0.0260897
r138 19 21 0.193182
r139 18 26 2.875
r140 17 23 1.075
r141 16 44 0.0121844
r142 14 36 0.20978
r143 12 16 0.776809
r144 10 36 4.15286
r145 10 12 0.212317
r146 9 14 1
r147 7 9 0.075
r148 6 9 0.075
r149 3 16 1
r150 1 3 0.125
.ends

.subckt PM_RAN_Xtest_full_adder_nand_2.N_2 1 3 6 7 14 16 17 18 19 27 33 41 44 45
+ 46 47 48 52
c116 33 0 1.16056e-19
c117 16 0 6.59301e-20
c118 14 0 1.18422e-20
r119 50 52 0.17229
r120 47 54 0.1238
r121 47 48 0.436
r122 45 48 0.14598
r123 45 46 2.08721
r124 44 46 0.143273
r125 43 44 1.14693
r126 41 43 0.148597
r127 41 52 3.44863
r128 40 50 2
r129 27 54 2
r130 26 27 1.1
r131 22 26 0.200688
r132 19 26 0.386101
r133 18 19 2.423
r134 17 22 1.105
r135 16 40 0.00076
r136 14 33 0.20978
r137 12 16 0.77563
r138 10 33 4.15286
r139 10 12 0.212317
r140 9 14 1
r141 7 9 0.075
r142 6 9 0.075
r143 3 16 1
r144 1 3 0.125
.ends

.subckt PM_RAN_Xtest_full_adder_nand_2.N_4 1 3 6 7 14 16 17 18 19 29 31 32 33 43
+ 45 46 47 57 66 68 75 80 87 88 91 95 100 101 104 105 107 109 110 112 114 115
c239 109 0 1.66914e-19
c240 105 0 1.27302e-19
c241 91 0 1.40707e-19
c242 75 0 1.60854e-20
c243 68 0 1.38515e-19
c244 16 0 6.59309e-20
c245 14 0 1.18422e-20
r246 114 115 0.172675
r247 109 110 0.172675
r248 104 105 0.172675
r249 100 101 0.176128
r250 97 115 2.46918
r251 96 112 0.0950116
r252 95 97 0.14043
r253 95 96 4.21687
r254 93 112 0.0370632
r255 93 110 2.4726
r256 92 107 0.0950116
r257 91 112 0.0950116
r258 91 92 3.9488
r259 89 107 0.0370632
r260 89 105 2.4726
r261 87 107 0.0950116
r262 87 88 3.46386
r263 85 88 0.140788
r264 85 101 1.60211
r265 84 100 2
r266 80 114 2
r267 75 109 2
r268 68 104 2
r269 58 80 0.0292308
r270 54 57 0.192274
r271 51 57 0.192274
r272 49 58 1.1
r273 47 57 0.0260897
r274 47 49 0.193182
r275 46 54 2.875
r276 45 51 1.075
r277 44 75 0.0263077
r278 40 43 0.192274
r279 37 43 0.192274
r280 35 44 1.1
r281 33 43 0.0260897
r282 33 35 0.193182
r283 32 40 2.875
r284 31 37 1.075
r285 30 68 0.00876923
r286 26 29 0.192274
r287 23 29 0.192274
r288 21 30 1.1
r289 19 29 0.0260897
r290 19 21 0.193182
r291 18 26 2.875
r292 17 23 1.075
r293 16 84 0.0038
r294 14 66 0.20978
r295 12 16 0.77563
r296 10 66 4.15286
r297 10 12 0.212317
r298 9 14 1
r299 7 9 0.075
r300 6 9 0.075
r301 3 16 1
r302 1 3 0.125
.ends

.subckt PM_RAN_Xtest_full_adder_nand_2.N_8 1 3 6 7 14 16 17 18 19 35 36 38 39 42
+ 44 46 56 60 61 64
c139 56 0 2.13416e-19
c140 38 0 1.49332e-19
c141 36 0 1.40707e-19
c142 16 0 6.59309e-20
c143 14 0 1.18422e-20
c144 3 0 6.42504e-26
r145 64 66 0.171005
r146 61 66 3.20946
r147 60 61 0.171005
r148 56 58 0.0019084
r149 52 56 2
r150 46 60 2
r151 42 64 2
r152 38 58 2
r153 38 39 0.171005
r154 35 42 0.156235
r155 35 36 23.4048
r156 33 36 0.123912
r157 33 39 2.35473
r158 27 46 0.00584615
r159 26 27 1.1
r160 22 26 0.200688
r161 19 26 0.386101
r162 18 19 2.423
r163 17 22 1.105
r164 16 52 0.0038
r165 14 44 0.20978
r166 12 16 0.77563
r167 10 44 4.15286
r168 10 12 0.212317
r169 9 14 1
r170 7 9 0.075
r171 6 9 0.075
r172 3 16 1
r173 1 3 0.125
.ends

.subckt PM_RAN_Xtest_full_adder_nand_2.N_5 1 3 6 7 14 16 17 18 19 28 29 30 40 48
+ 52 57 61 64 65 66 68 69 72 76 78 81 83
c186 83 0 1.63582e-19
c187 78 0 1.85859e-19
c188 57 0 1.5715e-20
c189 16 0 6.59301e-20
c190 14 0 1.18422e-20
r191 83 85 0.166216
r192 78 80 0.166216
r193 74 76 0.151227
r194 72 85 0.548701
r195 70 81 0.114515
r196 69 72 0.140095
r197 69 70 3.94643
r198 68 81 0.0205267
r199 68 80 0.532468
r200 65 81 0.114515
r201 65 66 2.74286
r202 64 66 0.140214
r203 63 64 1.4359
r204 61 63 0.124431
r205 61 76 1.43182
r206 57 83 2
r207 52 78 2
r208 41 57 0.0263077
r209 37 40 0.192274
r210 34 40 0.192274
r211 32 41 1.1
r212 30 40 0.0260897
r213 30 32 0.193182
r214 29 37 2.875
r215 28 34 1.075
r216 27 52 0.0116923
r217 26 27 1.1
r218 22 26 0.200688
r219 19 26 0.386101
r220 18 19 2.423
r221 17 22 1.105
r222 16 74 2
r223 14 48 0.20978
r224 12 16 0.77563
r225 10 48 4.15286
r226 10 12 0.212317
r227 9 14 1
r228 7 9 0.075
r229 6 9 0.075
r230 3 16 1
r231 1 3 0.125
.ends

.subckt PM_RAN_Xtest_full_adder_nand_2.N_6 1 3 6 7 14 16 17 18 19 29 30 36 46 47
+ 49 51 53 54 57 58
c133 51 0 4.07927e-20
c134 30 0 1.64361e-19
c135 16 0 6.59326e-20
c136 14 0 1.18422e-20
r137 57 58 0.152434
r138 53 54 0.172675
r139 51 58 0.497126
r140 49 51 0.140105
r141 48 49 2.33544
r142 46 48 0.13484
r143 46 47 7.66265
r144 44 47 0.14043
r145 44 54 1.55822
r146 43 53 2
r147 30 57 2
r148 26 29 0.192274
r149 23 29 0.192274
r150 21 30 1.1
r151 19 29 0.0260897
r152 19 21 0.193182
r153 18 26 2.875
r154 17 23 1.075
r155 16 43 0.0114228
r156 14 36 0.20978
r157 12 16 0.776809
r158 10 36 4.15286
r159 10 12 0.212317
r160 9 14 1
r161 7 9 0.075
r162 6 9 0.075
r163 3 16 1
r164 1 3 0.125
.ends

.subckt PM_RAN_Xtest_full_adder_nand_2.N_7 1 3 6 7 14 16 17 18 19 27 33 41 42 44
+ 45 46 48 52
c121 48 0 1.06594e-20
c122 16 0 6.59301e-20
c123 14 0 1.18422e-20
r124 52 54 0.13164
r125 48 54 0.331818
r126 45 48 0.140026
r127 45 46 2.55625
r128 44 46 0.144026
r129 43 44 1.1733
r130 42 50 0.127823
r131 41 43 0.142123
r132 41 42 0.666667
r133 37 52 2
r134 27 37 0.00584615
r135 26 27 1.1
r136 22 26 0.200688
r137 19 26 0.386101
r138 18 19 2.423
r139 17 22 1.105
r140 16 50 2
r141 14 33 0.20978
r142 12 16 0.77563
r143 10 33 4.15286
r144 10 12 0.212317
r145 9 14 1
r146 7 9 0.075
r147 6 9 0.075
r148 3 16 1
r149 1 3 0.125
.ends

.subckt PM_RAN_Xtest_full_adder_nand_2.N_9 1 3 6 7 12 14 16 17 18 19 29 30 37 39
+ 40 41 42 43 50 52 55 56 58 59
c153 59 0 1.06594e-20
c154 52 0 1.07827e-19
c155 30 0 2.2692e-19
c156 16 0 5.47716e-20
c157 14 0 1.18422e-20
c158 12 0 6.59126e-20
r159 59 63 0.0383333
r160 58 61 0.065
r161 58 59 2.03833
r162 55 61 2
r163 55 56 0.24368
r164 48 63 2
r165 43 50 0.198995
r166 42 50 0.198995
r167 40 50 0.0129942
r168 40 41 3.61626
r169 39 56 88.5165
r170 37 41 0.217263
r171 36 39 0.22244
r172 36 37 4.55681
r173 30 48 0.00876923
r174 26 29 0.192274
r175 23 29 0.192274
r176 21 30 1.1
r177 19 29 0.0260897
r178 19 21 0.193182
r179 18 26 2.875
r180 17 23 1.075
r181 16 52 0.20978
r182 12 52 0.814286
r183 11 43 1.25726
r184 11 14 0.20978
r185 10 42 2.4016
r186 10 12 0.212317
r187 9 14 1
r188 7 9 0.075
r189 6 9 0.075
r190 3 16 1
r191 1 3 0.125
.ends

.subckt PM_RAN_Xtest_full_adder_nand_3.N_1 1 3 6 7 14 16 17 18 19 28 29 30 40 48
+ 50 55 62 65 66 67 68 69 70 72 73 77 78
c178 72 0 1.35269e-19
c179 70 0 1.81663e-19
c180 68 0 1.20633e-19
c181 67 0 8.53251e-21
c182 66 0 6.53963e-20
c183 55 0 1.65124e-19
c184 16 0 6.59317e-20
c185 14 0 1.18422e-20
r186 75 77 0.175743
r187 72 82 0.132709
r188 72 73 0.566038
r189 71 78 0.124678
r190 70 73 0.18725
r191 70 71 4.78395
r192 69 78 0.0129293
r193 68 80 0.139603
r194 68 69 0.59596
r195 66 78 0.124678
r196 66 67 3.53395
r197 65 67 0.164561
r198 64 65 1.39175
r199 62 64 0.144078
r200 62 77 2.97183
r201 61 75 2
r202 55 82 2
r203 50 80 2
r204 41 55 0.00292308
r205 37 40 0.192274
r206 34 40 0.192274
r207 32 41 1.1
r208 30 40 0.0260897
r209 30 32 0.193182
r210 29 37 2.875
r211 28 34 1.075
r212 27 50 0.00876923
r213 26 27 1.1
r214 22 26 0.200688
r215 19 26 0.386101
r216 18 19 2.423
r217 17 22 1.105
r218 16 61 0.00837675
r219 14 48 0.20978
r220 12 16 0.776809
r221 10 48 4.15286
r222 10 12 0.212317
r223 9 14 1
r224 7 9 0.075
r225 6 9 0.075
r226 3 16 1
r227 1 3 0.125
.ends

.subckt PM_RAN_Xtest_full_adder_nand_3.N_3 1 3 6 7 14 16 17 18 19 29 30 36 47 48
+ 52 53 56 57
c121 30 0 9.78281e-20
c122 16 0 6.59326e-20
c123 14 0 1.18422e-20
r124 56 57 0.132257
r125 52 53 0.16174
r126 49 57 1.70872
r127 47 49 0.143344
r128 47 48 10.811
r129 45 48 0.13971
r130 45 53 1.4875
r131 44 52 2
r132 38 56 2
r133 30 38 0.00584615
r134 26 29 0.192274
r135 23 29 0.192274
r136 21 30 1.1
r137 19 29 0.0260897
r138 19 21 0.193182
r139 18 26 2.875
r140 17 23 1.075
r141 16 44 0.0121844
r142 14 36 0.20978
r143 12 16 0.776809
r144 10 36 4.15286
r145 10 12 0.212317
r146 9 14 1
r147 7 9 0.075
r148 6 9 0.075
r149 3 16 1
r150 1 3 0.125
.ends

.subckt PM_RAN_Xtest_full_adder_nand_3.N_2 1 3 6 7 14 16 17 18 19 27 33 41 44 45
+ 46 47 48 52
c116 33 0 1.16056e-19
c117 16 0 6.59301e-20
c118 14 0 1.18422e-20
r119 50 52 0.17229
r120 47 54 0.1238
r121 47 48 0.436
r122 45 48 0.14598
r123 45 46 2.08721
r124 44 46 0.143273
r125 43 44 1.14693
r126 41 43 0.148597
r127 41 52 3.44863
r128 40 50 2
r129 27 54 2
r130 26 27 1.1
r131 22 26 0.200688
r132 19 26 0.386101
r133 18 19 2.423
r134 17 22 1.105
r135 16 40 0.00076
r136 14 33 0.20978
r137 12 16 0.77563
r138 10 33 4.15286
r139 10 12 0.212317
r140 9 14 1
r141 7 9 0.075
r142 6 9 0.075
r143 3 16 1
r144 1 3 0.125
.ends

.subckt PM_RAN_Xtest_full_adder_nand_3.N_4 1 3 6 7 14 16 17 18 19 29 31 32 33 43
+ 45 46 47 57 66 68 75 80 87 88 91 95 100 101 104 105 107 109 110 112 114 115
c239 109 0 1.66914e-19
c240 105 0 1.27302e-19
c241 91 0 1.40707e-19
c242 75 0 1.60854e-20
c243 68 0 1.38515e-19
c244 16 0 6.59309e-20
c245 14 0 1.18422e-20
r246 114 115 0.172675
r247 109 110 0.172675
r248 104 105 0.172675
r249 100 101 0.176128
r250 97 115 2.46918
r251 96 112 0.0950116
r252 95 97 0.14043
r253 95 96 4.21687
r254 93 112 0.0370632
r255 93 110 2.4726
r256 92 107 0.0950116
r257 91 112 0.0950116
r258 91 92 3.9488
r259 89 107 0.0370632
r260 89 105 2.4726
r261 87 107 0.0950116
r262 87 88 3.46386
r263 85 88 0.140788
r264 85 101 1.60211
r265 84 100 2
r266 80 114 2
r267 75 109 2
r268 68 104 2
r269 58 80 0.0292308
r270 54 57 0.192274
r271 51 57 0.192274
r272 49 58 1.1
r273 47 57 0.0260897
r274 47 49 0.193182
r275 46 54 2.875
r276 45 51 1.075
r277 44 75 0.0263077
r278 40 43 0.192274
r279 37 43 0.192274
r280 35 44 1.1
r281 33 43 0.0260897
r282 33 35 0.193182
r283 32 40 2.875
r284 31 37 1.075
r285 30 68 0.00876923
r286 26 29 0.192274
r287 23 29 0.192274
r288 21 30 1.1
r289 19 29 0.0260897
r290 19 21 0.193182
r291 18 26 2.875
r292 17 23 1.075
r293 16 84 0.0038
r294 14 66 0.20978
r295 12 16 0.77563
r296 10 66 4.15286
r297 10 12 0.212317
r298 9 14 1
r299 7 9 0.075
r300 6 9 0.075
r301 3 16 1
r302 1 3 0.125
.ends

.subckt PM_RAN_Xtest_full_adder_nand_3.N_8 1 3 6 7 14 16 17 18 19 35 36 38 39 42
+ 44 46 56 60 61 64
c134 56 0 2.13416e-19
c135 38 0 1.49332e-19
c136 36 0 1.40707e-19
c137 16 0 6.59309e-20
c138 14 0 1.18422e-20
c139 3 0 6.42504e-26
r140 64 66 0.171005
r141 61 66 3.20946
r142 60 61 0.171005
r143 56 58 0.0019084
r144 52 56 2
r145 46 60 2
r146 42 64 2
r147 38 58 2
r148 38 39 0.171005
r149 35 42 0.156235
r150 35 36 23.4048
r151 33 36 0.123912
r152 33 39 2.35473
r153 27 46 0.00584615
r154 26 27 1.1
r155 22 26 0.200688
r156 19 26 0.386101
r157 18 19 2.423
r158 17 22 1.105
r159 16 52 0.0038
r160 14 44 0.20978
r161 12 16 0.77563
r162 10 44 4.15286
r163 10 12 0.212317
r164 9 14 1
r165 7 9 0.075
r166 6 9 0.075
r167 3 16 1
r168 1 3 0.125
.ends

.subckt PM_RAN_Xtest_full_adder_nand_3.N_5 1 3 6 7 14 16 17 18 19 28 29 30 40 48
+ 52 57 61 64 65 66 68 69 72 76 78 81 83
c186 83 0 1.63582e-19
c187 78 0 1.85859e-19
c188 57 0 1.5715e-20
c189 16 0 6.59301e-20
c190 14 0 1.18422e-20
r191 83 85 0.166216
r192 78 80 0.166216
r193 74 76 0.151227
r194 72 85 0.548701
r195 70 81 0.114515
r196 69 72 0.140095
r197 69 70 3.94643
r198 68 81 0.0205267
r199 68 80 0.532468
r200 65 81 0.114515
r201 65 66 2.74286
r202 64 66 0.140214
r203 63 64 1.4359
r204 61 63 0.124431
r205 61 76 1.43182
r206 57 83 2
r207 52 78 2
r208 41 57 0.0263077
r209 37 40 0.192274
r210 34 40 0.192274
r211 32 41 1.1
r212 30 40 0.0260897
r213 30 32 0.193182
r214 29 37 2.875
r215 28 34 1.075
r216 27 52 0.0116923
r217 26 27 1.1
r218 22 26 0.200688
r219 19 26 0.386101
r220 18 19 2.423
r221 17 22 1.105
r222 16 74 2
r223 14 48 0.20978
r224 12 16 0.77563
r225 10 48 4.15286
r226 10 12 0.212317
r227 9 14 1
r228 7 9 0.075
r229 6 9 0.075
r230 3 16 1
r231 1 3 0.125
.ends

.subckt PM_RAN_Xtest_full_adder_nand_3.N_6 1 3 6 7 14 16 17 18 19 29 30 36 46 47
+ 49 51 53 54 57 58
c133 51 0 4.07927e-20
c134 30 0 1.64361e-19
c135 16 0 6.59326e-20
c136 14 0 1.18422e-20
r137 57 58 0.152434
r138 53 54 0.172675
r139 51 58 0.497126
r140 49 51 0.140105
r141 48 49 2.33544
r142 46 48 0.13484
r143 46 47 7.66265
r144 44 47 0.14043
r145 44 54 1.55822
r146 43 53 2
r147 30 57 2
r148 26 29 0.192274
r149 23 29 0.192274
r150 21 30 1.1
r151 19 29 0.0260897
r152 19 21 0.193182
r153 18 26 2.875
r154 17 23 1.075
r155 16 43 0.0114228
r156 14 36 0.20978
r157 12 16 0.776809
r158 10 36 4.15286
r159 10 12 0.212317
r160 9 14 1
r161 7 9 0.075
r162 6 9 0.075
r163 3 16 1
r164 1 3 0.125
.ends

.subckt PM_RAN_Xtest_full_adder_nand_3.N_7 1 3 6 7 14 16 17 18 19 27 33 41 42 44
+ 45 46 48 52
c122 48 0 1.06594e-20
c123 16 0 6.59301e-20
c124 14 0 1.18422e-20
r125 52 54 0.13164
r126 48 54 0.331818
r127 45 48 0.140026
r128 45 46 2.55625
r129 44 46 0.144026
r130 43 44 1.1733
r131 42 50 0.127823
r132 41 43 0.142123
r133 41 42 0.666667
r134 37 52 2
r135 27 37 0.00584615
r136 26 27 1.1
r137 22 26 0.200688
r138 19 26 0.386101
r139 18 19 2.423
r140 17 22 1.105
r141 16 50 2
r142 14 33 0.20978
r143 12 16 0.77563
r144 10 33 4.15286
r145 10 12 0.212317
r146 9 14 1
r147 7 9 0.075
r148 6 9 0.075
r149 3 16 1
r150 1 3 0.125
.ends

.subckt PM_RAN_Xtest_full_adder_nand_3.N_9 1 3 6 7 12 14 16 17 18 19 29 30 37 39
+ 40 41 42 43 50 52 55 56 58 59
c153 59 0 1.06594e-20
c154 52 0 1.07827e-19
c155 30 0 2.2692e-19
c156 16 0 5.47716e-20
c157 14 0 1.18422e-20
c158 12 0 6.59126e-20
r159 59 63 0.0383333
r160 58 61 0.065
r161 58 59 2.03833
r162 55 61 2
r163 55 56 0.24368
r164 48 63 2
r165 43 50 0.198995
r166 42 50 0.198995
r167 40 50 0.0129942
r168 40 41 3.61626
r169 39 56 88.5165
r170 37 41 0.217263
r171 36 39 0.22244
r172 36 37 4.55681
r173 30 48 0.00876923
r174 26 29 0.192274
r175 23 29 0.192274
r176 21 30 1.1
r177 19 29 0.0260897
r178 19 21 0.193182
r179 18 26 2.875
r180 17 23 1.075
r181 16 52 0.20978
r182 12 52 0.814286
r183 11 43 1.25726
r184 11 14 0.20978
r185 10 42 2.4016
r186 10 12 0.212317
r187 9 14 1
r188 7 9 0.075
r189 6 9 0.075
r190 3 16 1
r191 1 3 0.125
.ends

.subckt PM_RAN_Xtest_full_adder_nand_4.N_1 1 3 6 7 14 16 17 18 19 28 29 30 40 48
+ 50 55 62 65 66 67 68 69 70 72 73 77 78
c178 72 0 1.35269e-19
c179 70 0 1.81663e-19
c180 68 0 1.20633e-19
c181 67 0 8.53251e-21
c182 66 0 6.53963e-20
c183 55 0 1.65124e-19
c184 16 0 6.59317e-20
c185 14 0 1.18422e-20
r186 75 77 0.175743
r187 72 82 0.132709
r188 72 73 0.566038
r189 71 78 0.124678
r190 70 73 0.18725
r191 70 71 4.78395
r192 69 78 0.0129293
r193 68 80 0.139603
r194 68 69 0.59596
r195 66 78 0.124678
r196 66 67 3.53395
r197 65 67 0.164561
r198 64 65 1.39175
r199 62 64 0.144078
r200 62 77 2.97183
r201 61 75 2
r202 55 82 2
r203 50 80 2
r204 41 55 0.00292308
r205 37 40 0.192274
r206 34 40 0.192274
r207 32 41 1.1
r208 30 40 0.0260897
r209 30 32 0.193182
r210 29 37 2.875
r211 28 34 1.075
r212 27 50 0.00876923
r213 26 27 1.1
r214 22 26 0.200688
r215 19 26 0.386101
r216 18 19 2.423
r217 17 22 1.105
r218 16 61 0.00837675
r219 14 48 0.20978
r220 12 16 0.776809
r221 10 48 4.15286
r222 10 12 0.212317
r223 9 14 1
r224 7 9 0.075
r225 6 9 0.075
r226 3 16 1
r227 1 3 0.125
.ends

.subckt PM_RAN_Xtest_full_adder_nand_4.N_3 1 3 6 7 14 16 17 18 19 29 30 36 47 48
+ 52 53 56 57
c120 30 0 9.78281e-20
c121 16 0 6.59326e-20
c122 14 0 1.18422e-20
r123 56 57 0.132257
r124 52 53 0.16174
r125 49 57 1.70872
r126 47 49 0.143344
r127 47 48 10.811
r128 45 48 0.13971
r129 45 53 1.4875
r130 44 52 2
r131 38 56 2
r132 30 38 0.00584615
r133 26 29 0.192274
r134 23 29 0.192274
r135 21 30 1.1
r136 19 29 0.0260897
r137 19 21 0.193182
r138 18 26 2.875
r139 17 23 1.075
r140 16 44 0.0121844
r141 14 36 0.20978
r142 12 16 0.776809
r143 10 36 4.15286
r144 10 12 0.212317
r145 9 14 1
r146 7 9 0.075
r147 6 9 0.075
r148 3 16 1
r149 1 3 0.125
.ends

.subckt PM_RAN_Xtest_full_adder_nand_4.N_2 1 3 6 7 14 16 17 18 19 27 33 41 44 45
+ 46 47 48 52
c116 33 0 1.16056e-19
c117 16 0 6.59301e-20
c118 14 0 1.18422e-20
r119 50 52 0.17229
r120 47 54 0.1238
r121 47 48 0.436
r122 45 48 0.14598
r123 45 46 2.08721
r124 44 46 0.143273
r125 43 44 1.14693
r126 41 43 0.148597
r127 41 52 3.44863
r128 40 50 2
r129 27 54 2
r130 26 27 1.1
r131 22 26 0.200688
r132 19 26 0.386101
r133 18 19 2.423
r134 17 22 1.105
r135 16 40 0.00076
r136 14 33 0.20978
r137 12 16 0.77563
r138 10 33 4.15286
r139 10 12 0.212317
r140 9 14 1
r141 7 9 0.075
r142 6 9 0.075
r143 3 16 1
r144 1 3 0.125
.ends

.subckt PM_RAN_Xtest_full_adder_nand_4.N_4 1 3 6 7 14 16 17 18 19 29 31 32 33 43
+ 45 46 47 57 66 68 75 80 87 88 91 95 100 101 104 105 107 109 110 112 114 115
c237 109 0 1.66914e-19
c238 105 0 1.27302e-19
c239 91 0 1.40707e-19
c240 75 0 1.60854e-20
c241 68 0 1.38515e-19
c242 16 0 6.59309e-20
c243 14 0 1.18422e-20
r244 114 115 0.172675
r245 109 110 0.172675
r246 104 105 0.172675
r247 100 101 0.176128
r248 97 115 2.46918
r249 96 112 0.0950116
r250 95 97 0.14043
r251 95 96 4.21687
r252 93 112 0.0370632
r253 93 110 2.4726
r254 92 107 0.0950116
r255 91 112 0.0950116
r256 91 92 3.9488
r257 89 107 0.0370632
r258 89 105 2.4726
r259 87 107 0.0950116
r260 87 88 3.46386
r261 85 88 0.140788
r262 85 101 1.60211
r263 84 100 2
r264 80 114 2
r265 75 109 2
r266 68 104 2
r267 58 80 0.0292308
r268 54 57 0.192274